# created with PyMOL 3.0.0
@<TRIPOS>MOLECULE
VHL_5t35_E3Ligase
32 34 1                 
SMALL
USER_CHARGES
@<TRIPOS>ATOM
1	   N	-33.844	19.521	-30.090	N.pl3	1	LIG1	0.000	
2	  CA	-34.421	19.288	-28.740	C.3	1	LIG1	0.000	
3	 CAA	-36.653	23.063	-20.468	C.3	1	LIG1	0.000	
4	 CAE	-32.924	22.192	-31.664	C.3	1	LIG1	0.000	
5	 CAF	-33.006	21.671	-34.106	C.3	1	LIG1	0.000	
6	 CAG	-35.048	22.381	-32.907	C.3	1	LIG1	0.000	
7	 CAP	-36.427	22.534	-24.674	C.2	1	LIG1	0.000	
8	 CAQ	-35.452	20.356	-24.706	C.2	1	LIG1	0.000	
9	 CAT	-35.875	22.772	-23.418	C.2	1	LIG1	0.000	
10	 CAU	-34.896	20.599	-23.444	C.2	1	LIG1	0.000	
11	 CAV	-33.176	22.233	-19.467	C.2	1	LIG1	0.000	
12	   C	-35.034	20.417	-28.158	C.2	1	LIG1	0.000	
13	   O	-34.589	21.550	-28.330	O.2	1	LIG1	0.000	
14	 OAH	-33.729	17.790	-34.297	O.2	1	LIG1	0.000	
15	 OAK	-35.867	19.961	-30.938	O.2	1	LIG1	0.000	
16	  CB	-33.235	18.904	-27.885	C.3	1	LIG1	0.000	
17	 CBC	-36.825	21.175	-26.604	C.3	1	LIG1	0.000	
18	 CBT	-34.784	18.430	-34.232	C.2	1	LIG1	0.000	
19	 CBW	-34.660	19.834	-31.098	C.2	1	LIG1	0.000	
20	 CBZ	-35.191	22.579	-20.475	C.2	1	LIG1	0.000	
21	 NBI	-34.433	22.682	-19.363	N.2	1	LIG1	0.000	
22	 NBM	-36.086	20.146	-27.365	N.pl3	1	LIG1	0.000	
23	 NBN	-35.012	19.505	-33.454	N.pl3	1	LIG1	0.000	
24	 SBR	-32.995	21.680	-21.012	S.2	1	LIG1	0.000	
25	  CG	-32.220	18.357	-28.852	C.3	1	LIG1	0.000	
26	 CD2	-32.381	19.278	-30.037	C.3	1	LIG1	0.000	
27	 OD1	-32.543	16.982	-29.200	O.3	1	LIG1	0.000	
28	 CCA	-36.229	21.330	-25.347	C.2	1	LIG1	0.000	
29	 CCF	-35.094	21.811	-22.772	C.2	1	LIG1	0.000	
30	 CCH	-34.566	22.039	-21.540	C.2	1	LIG1	0.000	
31	 CCN	-34.044	20.052	-32.488	C.3	1	LIG1	0.000	
32	 CCQ	-33.769	21.560	-32.778	C.3	1	LIG1	0.000	
@<TRIPOS>BOND
1 1 2 1
2 1 19 1
3 1 26 1
4 2 12 1
5 2 16 1
6 3 20 1
7 4 32 1
8 5 32 1
9 6 32 1
10 7 9 ar
11 7 28 ar
12 8 10 ar
13 8 28 ar
14 9 29 ar
15 10 29 ar
16 11 21 ar
17 11 24 ar
18 12 13 2
19 12 22 1
20 14 18 2
21 15 19 2
22 16 25 1
23 17 22 1
24 17 28 1
25 18 23 1
26 19 31 1
27 20 21 ar
28 20 30 ar
29 23 31 1
30 24 30 ar
31 25 26 1
32 25 27 1
33 29 30 1
34 31 32 1
@<TRIPOS>SUBSTRUCTURE
1	LIG1	1	GROUP	1 D	LIG
