# created with PyMOL 3.0.0
@<TRIPOS>MOLECULE
BRD9_6hm0_TargetProtein
128 130 15              
SMALL
USER_CHARGES
@<TRIPOS>ATOM
1	   N	4.522	4.767	2.728	N.am	1	HIS42	0.000	
2	  CA	3.737	3.972	1.787	C.3	1	HIS42	0.000	
3	   C	4.291	2.559	1.629	C.2	1	HIS42	0.000	
4	   O	3.827	1.794	0.787	O.2	1	HIS42	0.000	
5	  CB	3.707	4.655	0.418	C.3	1	HIS42	0.000	
6	  CG	3.231	6.074	0.463	C.2	1	HIS42	0.000	
7	 CD2	3.908	7.238	0.297	C.2	1	HIS42	0.000	
8	 ND1	1.930	6.450	0.713	N.pl3	1	HIS42	0.000	
9	 CE1	1.883	7.790	0.703	C.2	1	HIS42	0.000	
10	 NE2	3.066	8.313	0.447	N.pl3	1	HIS42	0.000	
11	   N	5.294	2.214	2.430	N.am	2	GLY43	0.000	
12	  CA	5.815	0.858	2.433	C.3	2	GLY43	0.000	
13	   C	6.408	0.370	1.125	C.2	2	GLY43	0.000	
14	   O	6.559	-0.837	0.939	O.2	2	GLY43	0.000	
15	   N	6.774	1.277	0.225	N.am	3	PHE44	0.000	
16	  CA	7.290	0.887	-1.084	C.3	3	PHE44	0.000	
17	   C	8.591	0.095	-0.975	C.2	3	PHE44	0.000	
18	   O	8.979	-0.601	-1.915	O.2	3	PHE44	0.000	
19	  CB	7.560	2.111	-1.964	C.3	3	PHE44	0.000	
20	  CG	6.343	2.932	-2.297	C.2	3	PHE44	0.000	
21	 CD1	5.154	2.339	-2.714	C.2	3	PHE44	0.000	
22	 CD2	6.425	4.320	-2.271	C.2	3	PHE44	0.000	
23	 CE1	4.075	3.120	-3.124	C.2	3	PHE44	0.000	
24	 CE2	5.360	5.109	-2.700	C.2	3	PHE44	0.000	
25	  CZ	4.182	4.506	-3.129	C.2	3	PHE44	0.000	
26	   N	9.267	0.229	0.161	N.am	4	PHE45	0.000	
27	  CA	10.492	-0.502	0.472	C.3	4	PHE45	0.000	
28	   C	10.314	-1.476	1.635	C.2	4	PHE45	0.000	
29	   O	11.279	-2.103	2.067	O.2	4	PHE45	0.000	
30	  CB	11.596	0.491	0.842	C.3	4	PHE45	0.000	
31	  CG	11.987	1.414	-0.279	C.2	4	PHE45	0.000	
32	 CD1	12.972	1.031	-1.182	C.2	4	PHE45	0.000	
33	 CD2	11.394	2.664	-0.420	C.2	4	PHE45	0.000	
34	 CE1	13.390	1.895	-2.190	C.2	4	PHE45	0.000	
35	 CE2	11.777	3.520	-1.450	C.2	4	PHE45	0.000	
36	  CZ	12.778	3.136	-2.335	C.2	4	PHE45	0.000	
37	   N	9.100	-1.603	2.160	N.am	5	ALA46	0.000	
38	  CA	8.853	-2.457	3.318	C.3	5	ALA46	0.000	
39	   C	8.974	-3.943	2.988	C.2	5	ALA46	0.000	
40	   O	9.437	-4.731	3.812	O.2	5	ALA46	0.000	
41	  CB	7.476	-2.167	3.899	C.3	5	ALA46	0.000	
42	   N	8.546	-4.323	1.790	N.am	6	PHE47	0.000	
43	  CA	8.565	-5.715	1.347	C.3	6	PHE47	0.000	
44	   C	9.207	-5.805	-0.036	C.2	6	PHE47	0.000	
45	   O	9.314	-4.791	-0.728	O.2	6	PHE47	0.000	
46	  CB	7.135	-6.266	1.327	C.3	6	PHE47	0.000	
47	  CG	6.476	-6.276	2.678	C.2	6	PHE47	0.000	
48	 CD1	6.786	-7.268	3.603	C.2	6	PHE47	0.000	
49	 CD2	5.558	-5.292	3.030	C.2	6	PHE47	0.000	
50	 CE1	6.203	-7.272	4.868	C.2	6	PHE47	0.000	
51	 CE2	4.972	-5.284	4.294	C.2	6	PHE47	0.000	
52	  CZ	5.298	-6.274	5.217	C.2	6	PHE47	0.000	
53	   N	9.653	-7.001	-0.457	N.am	7	PRO48	0.000	
54	  CA	10.269	-7.067	-1.787	C.3	7	PRO48	0.000	
55	   C	9.360	-6.585	-2.915	C.2	7	PRO48	0.000	
56	   O	8.136	-6.691	-2.840	O.2	7	PRO48	0.000	
57	  CB	10.574	-8.556	-1.966	C.3	7	PRO48	0.000	
58	  CG	10.639	-9.110	-0.588	C.3	7	PRO48	0.000	
59	  CD	9.615	-8.329	0.182	C.3	7	PRO48	0.000	
60	   N	9.973	-6.064	-3.972	N.am	8	VAL49	0.000	
61	  CA	9.235	-5.583	-5.138	C.3	8	VAL49	0.000	
62	   C	9.063	-6.741	-6.115	C.2	8	VAL49	0.000	
63	   O	10.044	-7.374	-6.507	O.2	8	VAL49	0.000	
64	  CB	9.969	-4.426	-5.851	C.3	8	VAL49	0.000	
65	 CG1	9.163	-3.910	-7.037	C.3	8	VAL49	0.000	
66	 CG2	10.237	-3.275	-4.883	C.3	8	VAL49	0.000	
67	   N	3.997	-5.629	-9.851	N.am	9	ILE53	0.000	
68	  CA	3.938	-4.197	-9.565	C.3	9	ILE53	0.000	
69	   C	5.120	-3.457	-10.190	C.2	9	ILE53	0.000	
70	   O	5.234	-2.234	-10.085	O.2	9	ILE53	0.000	
71	  CB	3.894	-3.931	-8.041	C.3	9	ILE53	0.000	
72	 CG1	5.140	-4.505	-7.354	C.3	9	ILE53	0.000	
73	 CG2	2.618	-4.528	-7.448	C.3	9	ILE53	0.000	
74	 CD1	5.306	-4.115	-5.901	C.3	9	ILE53	0.000	
75	   N	5.993	-4.209	-10.852	N.am	10	ALA54	0.000	
76	  CA	7.200	-3.684	-11.482	C.3	10	ALA54	0.000	
77	   C	7.670	-4.639	-12.579	C.2	10	ALA54	0.000	
78	   O	8.589	-5.430	-12.366	O.2	10	ALA54	0.000	
79	  CB	8.291	-3.514	-10.434	C.3	10	ALA54	0.000	
80	   N	11.434	-6.321	-13.139	N.am	11	TYR57	0.000	
81	  CA	12.267	-6.008	-11.980	C.3	11	TYR57	0.000	
82	   C	13.305	-7.088	-11.693	C.2	11	TYR57	0.000	
83	   O	14.448	-6.775	-11.364	O.2	11	TYR57	0.000	
84	  CB	11.387	-5.797	-10.745	C.3	11	TYR57	0.000	
85	  CG	12.096	-5.134	-9.584	C.2	11	TYR57	0.000	
86	 CD1	12.123	-3.744	-9.467	C.2	11	TYR57	0.000	
87	 CD2	12.720	-5.894	-8.595	C.2	11	TYR57	0.000	
88	 CE1	12.769	-3.125	-8.399	C.2	11	TYR57	0.000	
89	 CE2	13.361	-5.280	-7.520	C.2	11	TYR57	0.000	
90	  CZ	13.385	-3.899	-7.430	C.2	11	TYR57	0.000	
91	  OH	14.019	-3.296	-6.368	O.3	11	TYR57	0.000	
92	   N	16.546	0.858	-6.476	N.am	12	ALA96	0.000	
93	  CA	15.439	1.732	-6.848	C.3	12	ALA96	0.000	
94	   C	15.889	2.844	-7.793	C.2	12	ALA96	0.000	
95	   O	15.114	3.292	-8.636	O.2	12	ALA96	0.000	
96	  CB	14.797	2.323	-5.603	C.3	12	ALA96	0.000	
97	   N	16.276	0.733	-11.374	N.am	13	TYR99	0.000	
98	  CA	15.061	0.291	-12.053	C.3	13	TYR99	0.000	
99	   C	14.128	1.436	-12.443	C.2	13	TYR99	0.000	
100	   O	13.539	1.424	-13.524	O.2	13	TYR99	0.000	
101	  CB	14.298	-0.690	-11.158	C.3	13	TYR99	0.000	
102	  CG	13.011	-1.183	-11.783	C.2	13	TYR99	0.000	
103	 CD1	13.014	-2.239	-12.695	C.2	13	TYR99	0.000	
104	 CD2	11.794	-0.573	-11.478	C.2	13	TYR99	0.000	
105	 CE1	11.835	-2.652	-13.313	C.2	13	TYR99	0.000	
106	 CE2	10.614	-0.979	-12.097	C.2	13	TYR99	0.000	
107	  CZ	10.643	-2.010	-13.021	C.2	13	TYR99	0.000	
108	  OH	9.478	-2.397	-13.641	O.3	13	TYR99	0.000	
109	   N	13.961	2.413	-11.558	N.am	14	ASN100	0.000	
110	  CA	12.972	3.465	-11.768	C.3	14	ASN100	0.000	
111	   C	13.614	4.671	-12.451	C.2	14	ASN100	0.000	
112	   O	14.800	4.943	-12.263	O.2	14	ASN100	0.000	
113	  CB	12.369	3.897	-10.428	C.3	14	ASN100	0.000	
114	  CG	11.793	2.743	-9.635	C.2	14	ASN100	0.000	
115	 ND2	12.551	2.303	-8.647	N.pl3	14	ASN100	0.000	
116	 OD1	10.683	2.263	-9.869	O.2	14	ASN100	0.000	
117	   N	9.668	6.676	-6.639	N.am	15	TYR106	0.000	
118	  CA	10.535	5.653	-6.062	C.3	15	TYR106	0.000	
119	   C	11.995	6.095	-6.066	C.2	15	TYR106	0.000	
120	   O	12.710	5.889	-5.087	O.2	15	TYR106	0.000	
121	  CB	10.412	4.342	-6.841	C.3	15	TYR106	0.000	
122	  CG	9.000	3.809	-6.952	C.2	15	TYR106	0.000	
123	 CD1	8.328	3.310	-5.835	C.2	15	TYR106	0.000	
124	 CD2	8.343	3.794	-8.183	C.2	15	TYR106	0.000	
125	 CE1	7.037	2.797	-5.950	C.2	15	TYR106	0.000	
126	 CE2	7.049	3.291	-8.298	C.2	15	TYR106	0.000	
127	  CZ	6.399	2.801	-7.178	C.2	15	TYR106	0.000	
128	  OH	5.120	2.308	-7.295	O.3	15	TYR106	0.000	
@<TRIPOS>BOND
1 1 2 1
2 2 3 1
3 2 5 1
4 3 4 2
5 3 11 1
6 5 6 1
7 6 7 2
8 6 8 1
9 7 10 1
10 8 9 2
11 9 10 1
12 11 12 1
13 12 13 1
14 13 14 2
15 13 15 1
16 15 16 1
17 16 17 1
18 16 19 1
19 17 18 2
20 17 26 1
21 19 20 1
22 20 21 2
23 20 22 1
24 21 23 1
25 22 24 2
26 23 25 2
27 24 25 1
28 26 27 1
29 27 28 1
30 27 30 1
31 28 29 2
32 28 37 1
33 30 31 1
34 31 32 2
35 31 33 1
36 32 34 1
37 33 35 2
38 34 36 2
39 35 36 1
40 37 38 1
41 38 39 1
42 38 41 1
43 39 40 2
44 39 42 1
45 42 43 1
46 43 44 1
47 43 46 1
48 44 45 2
49 44 53 1
50 46 47 1
51 47 48 2
52 47 49 1
53 48 50 1
54 49 51 2
55 50 52 2
56 51 52 1
57 53 54 1
58 53 59 1
59 54 55 1
60 54 57 1
61 55 56 2
62 55 60 1
63 57 58 1
64 58 59 1
65 60 61 1
66 61 62 1
67 61 64 1
68 62 63 2
69 64 65 1
70 64 66 1
71 67 68 1
72 68 69 1
73 68 71 1
74 69 70 2
75 69 75 1
76 71 72 1
77 71 73 1
78 72 74 1
79 75 76 1
80 76 77 1
81 76 79 1
82 77 78 2
83 80 81 1
84 81 82 1
85 81 84 1
86 82 83 2
87 84 85 1
88 85 86 2
89 85 87 1
90 86 88 1
91 87 89 2
92 88 90 2
93 89 90 1
94 90 91 1
95 92 93 1
96 93 94 1
97 93 96 1
98 94 95 2
99 97 98 1
100 98 99 1
101 98 101 1
102 99 100 2
103 99 109 1
104 101 102 1
105 102 103 2
106 102 104 1
107 103 105 1
108 104 106 2
109 105 107 2
110 106 107 1
111 107 108 1
112 109 110 1
113 110 111 1
114 110 113 1
115 111 112 2
116 113 114 1
117 114 115 1
118 114 116 2
119 117 118 1
120 118 119 1
121 118 121 1
122 119 120 2
123 121 122 1
124 122 123 2
125 122 124 1
126 123 125 1
127 124 126 2
128 125 127 2
129 126 127 1
130 127 128 1
@<TRIPOS>SUBSTRUCTURE
1	HIS42	1	RESIDUE	1 A	HIS
2	GLY43	11	RESIDUE	1 A	GLY
3	PHE44	15	RESIDUE	1 A	PHE
4	PHE45	26	RESIDUE	1 A	PHE
5	ALA46	37	RESIDUE	1 A	ALA
6	PHE47	42	RESIDUE	1 A	PHE
7	PRO48	53	RESIDUE	1 A	PRO
8	VAL49	60	RESIDUE	1 A	VAL
9	ILE53	67	RESIDUE	1 A	ILE
10	ALA54	75	RESIDUE	1 A	ALA
11	TYR57	80	RESIDUE	1 A	TYR
12	ALA96	92	RESIDUE	1 A	ALA
13	TYR99	97	RESIDUE	1 A	TYR
14	ASN100	109	RESIDUE	1 A	ASN
15	TYR106	117	RESIDUE	1 A	TYR
