# created with PyMOL 3.0.0
@<TRIPOS>MOLECULE
VHL_5t35_E3Ligase
156 158 16              
SMALL
USER_CHARGES
@<TRIPOS>ATOM
1	   N	-29.548	13.653	-37.602	N.am	1	ASN67	0.000	
2	  CA	-30.808	14.320	-37.856	C.3	1	ASN67	0.000	
3	   C	-31.923	13.313	-38.157	C.2	1	ASN67	0.000	
4	   O	-32.463	13.274	-39.257	O.2	1	ASN67	0.000	
5	  CB	-30.641	15.318	-38.992	C.3	1	ASN67	0.000	
6	  CG	-31.769	16.323	-39.057	C.2	1	ASN67	0.000	
7	 ND2	-31.682	17.237	-40.015	N.pl3	1	ASN67	0.000	
8	 OD1	-32.704	16.287	-38.257	O.2	1	ASN67	0.000	
9	   N	-33.853	14.668	-17.504	N.am	2	PHE76	0.000	
10	  CA	-32.583	15.204	-17.009	C.3	2	PHE76	0.000	
11	   C	-32.749	15.384	-15.520	C.2	2	PHE76	0.000	
12	   O	-33.728	15.992	-15.082	O.2	2	PHE76	0.000	
13	  CB	-32.239	16.579	-17.613	C.3	2	PHE76	0.000	
14	  CG	-31.712	16.541	-19.027	C.2	2	PHE76	0.000	
15	 CD1	-31.416	15.341	-19.681	C.2	2	PHE76	0.000	
16	 CD2	-31.477	17.734	-19.696	C.2	2	PHE76	0.000	
17	 CE1	-30.926	15.342	-20.975	C.2	2	PHE76	0.000	
18	 CE2	-30.979	17.740	-20.992	C.2	2	PHE76	0.000	
19	  CZ	-30.708	16.544	-21.633	C.2	2	PHE76	0.000	
20	   N	-26.639	21.772	-19.541	N.am	3	PRO86	0.000	
21	  CA	-26.651	20.769	-20.596	C.3	3	PRO86	0.000	
22	   C	-26.128	21.363	-21.902	C.2	3	PRO86	0.000	
23	   O	-26.442	22.516	-22.220	O.2	3	PRO86	0.000	
24	  CB	-28.137	20.397	-20.726	C.3	3	PRO86	0.000	
25	  CG	-28.863	21.168	-19.666	C.3	3	PRO86	0.000	
26	  CD	-27.984	22.314	-19.297	C.3	3	PRO86	0.000	
27	   N	-25.834	20.517	-26.060	N.am	4	TRP88	0.000	
28	  CA	-26.252	19.675	-27.186	C.3	4	TRP88	0.000	
29	   C	-25.294	19.864	-28.347	C.2	4	TRP88	0.000	
30	   O	-25.048	20.992	-28.760	O.2	4	TRP88	0.000	
31	  CB	-27.674	20.035	-27.643	C.3	4	TRP88	0.000	
32	  CG	-28.144	19.235	-28.841	C.2	4	TRP88	0.000	
33	 CD1	-28.283	17.878	-28.915	C.2	4	TRP88	0.000	
34	 CD2	-28.527	19.743	-30.131	C.2	4	TRP88	0.000	
35	 CE2	-28.878	18.632	-30.934	C.2	4	TRP88	0.000	
36	 CE3	-28.596	21.027	-30.688	C.2	4	TRP88	0.000	
37	 NE1	-28.724	17.508	-30.168	N.pl3	4	TRP88	0.000	
38	 CZ2	-29.296	18.766	-32.260	C.2	4	TRP88	0.000	
39	 CZ3	-29.012	21.160	-32.013	C.2	4	TRP88	0.000	
40	 CH2	-29.353	20.034	-32.783	C.2	4	TRP88	0.000	
41	   N	-25.969	19.053	-35.643	N.am	5	PHE91	0.000	
42	  CA	-25.696	18.200	-36.806	C.3	5	PHE91	0.000	
43	   C	-24.328	18.505	-37.437	C.2	5	PHE91	0.000	
44	   O	-23.766	17.652	-38.119	O.2	5	PHE91	0.000	
45	  CB	-26.829	18.315	-37.833	C.3	5	PHE91	0.000	
46	  CG	-28.208	18.195	-37.228	C.2	5	PHE91	0.000	
47	 CD1	-28.550	17.094	-36.457	C.2	5	PHE91	0.000	
48	 CD2	-29.160	19.191	-37.415	C.2	5	PHE91	0.000	
49	 CE1	-29.809	16.985	-35.885	C.2	5	PHE91	0.000	
50	 CE2	-30.423	19.085	-36.854	C.2	5	PHE91	0.000	
51	  CZ	-30.747	17.982	-36.087	C.2	5	PHE91	0.000	
52	   N	-28.081	24.777	-23.461	N.am	6	TYR98	0.000	
53	  CA	-29.502	24.701	-23.133	C.3	6	TYR98	0.000	
54	   C	-29.714	25.288	-21.736	C.2	6	TYR98	0.000	
55	   O	-28.740	25.595	-21.048	O.2	6	TYR98	0.000	
56	  CB	-29.989	23.245	-23.235	C.3	6	TYR98	0.000	
57	  CG	-30.597	22.932	-24.583	C.2	6	TYR98	0.000	
58	 CD1	-29.800	22.834	-25.718	C.2	6	TYR98	0.000	
59	 CD2	-31.968	22.767	-24.728	C.2	6	TYR98	0.000	
60	 CE1	-30.353	22.577	-26.961	C.2	6	TYR98	0.000	
61	 CE2	-32.531	22.513	-25.967	C.2	6	TYR98	0.000	
62	  CZ	-31.721	22.418	-27.079	C.2	6	TYR98	0.000	
63	  OH	-32.274	22.166	-28.308	O.3	6	TYR98	0.000	
64	   N	-30.979	25.488	-21.323	N.am	7	PRO99	0.000	
65	  CA	-31.227	26.076	-19.992	C.3	7	PRO99	0.000	
66	   C	-30.645	25.250	-18.855	C.2	7	PRO99	0.000	
67	   O	-30.541	24.026	-18.968	O.2	7	PRO99	0.000	
68	  CB	-32.754	26.105	-19.901	C.3	7	PRO99	0.000	
69	  CG	-33.212	26.178	-21.321	C.3	7	PRO99	0.000	
70	  CD	-32.223	25.355	-22.103	C.3	7	PRO99	0.000	
71	   N	-30.266	25.919	-17.769	N.am	8	THR100	0.000	
72	  CA	-29.546	25.261	-16.682	C.3	8	THR100	0.000	
73	   C	-30.473	24.630	-15.654	C.2	8	THR100	0.000	
74	   O	-31.623	25.034	-15.513	O.2	8	THR100	0.000	
75	  CB	-28.613	26.241	-15.954	C.3	8	THR100	0.000	
76	 CG2	-27.589	26.814	-16.911	C.3	8	THR100	0.000	
77	 OG1	-29.384	27.298	-15.382	O.3	8	THR100	0.000	
78	   N	-29.938	23.640	-14.941	N.am	9	LEU101	0.000	
79	  CA	-30.654	22.910	-13.904	C.3	9	LEU101	0.000	
80	   C	-29.999	23.156	-12.549	C.2	9	LEU101	0.000	
81	   O	-28.826	22.824	-12.362	O.2	9	LEU101	0.000	
82	  CB	-30.600	21.406	-14.196	C.3	9	LEU101	0.000	
83	  CG	-31.039	20.927	-15.579	C.3	9	LEU101	0.000	
84	 CD1	-30.626	19.484	-15.805	C.3	9	LEU101	0.000	
85	 CD2	-32.540	21.085	-15.747	C.3	9	LEU101	0.000	
86	   N	-36.388	17.395	-14.733	N.am	10	ARG107	0.000	
87	  CA	-37.319	17.940	-15.717	C.3	10	ARG107	0.000	
88	   C	-37.478	16.978	-16.901	C.2	10	ARG107	0.000	
89	   O	-36.524	16.289	-17.269	O.2	10	ARG107	0.000	
90	  CB	-36.789	19.310	-16.137	C.3	10	ARG107	0.000	
91	  CG	-37.795	20.265	-16.737	C.3	10	ARG107	0.000	
92	  CD	-37.135	21.615	-16.997	C.3	10	ARG107	0.000	
93	  NE	-36.374	22.126	-15.846	N.pl3	10	ARG107	0.000	
94	  CZ	-35.628	23.227	-15.876	C.cat	10	ARG107	0.000	
95	 NH1	-35.537	23.945	-16.991	N.pl3	10	ARG107	0.000	
96	 NH2	-34.971	23.621	-14.789	N.pl3	10	ARG107	0.000	
97	   N	-37.773	16.054	-20.821	N.am	11	ILE109	0.000	
98	  CA	-37.023	16.606	-21.959	C.3	11	ILE109	0.000	
99	   C	-37.377	15.893	-23.251	C.2	11	ILE109	0.000	
100	   O	-37.322	14.666	-23.312	O.2	11	ILE109	0.000	
101	  CB	-35.503	16.426	-21.757	C.3	11	ILE109	0.000	
102	 CG1	-35.031	17.165	-20.506	C.3	11	ILE109	0.000	
103	 CG2	-34.716	16.891	-22.973	C.3	11	ILE109	0.000	
104	 CD1	-35.193	18.662	-20.555	C.3	11	ILE109	0.000	
105	   N	-37.708	16.659	-24.290	N.am	12	HIS110	0.000	
106	  CA	-37.927	16.085	-25.617	C.3	12	HIS110	0.000	
107	   C	-36.671	16.206	-26.457	C.2	12	HIS110	0.000	
108	   O	-36.241	17.312	-26.772	O.2	12	HIS110	0.000	
109	  CB	-39.093	16.753	-26.336	C.3	12	HIS110	0.000	
110	  CG	-39.512	16.030	-27.578	C.2	12	HIS110	0.000	
111	 CD2	-38.998	16.038	-28.831	C.2	12	HIS110	0.000	
112	 ND1	-40.562	15.139	-27.602	N.pl3	12	HIS110	0.000	
113	 CE1	-40.684	14.638	-28.819	C.2	12	HIS110	0.000	
114	 NE2	-39.751	15.170	-29.585	N.pl3	12	HIS110	0.000	
115	   N	-36.092	15.060	-26.806	N.am	13	SER111	0.000	
116	  CA	-34.930	14.983	-27.691	C.3	13	SER111	0.000	
117	   C	-35.249	13.986	-28.815	C.2	13	SER111	0.000	
118	   O	-36.418	13.619	-28.999	O.2	13	SER111	0.000	
119	  CB	-33.698	14.553	-26.897	C.3	13	SER111	0.000	
120	  OG	-32.511	14.755	-27.647	O.3	13	SER111	0.000	
121	   N	-34.230	13.553	-29.566	N.am	14	TYR112	0.000	
122	  CA	-34.431	12.646	-30.714	C.3	14	TYR112	0.000	
123	   C	-33.367	11.545	-30.753	C.2	14	TYR112	0.000	
124	   O	-32.290	11.692	-30.171	O.2	14	TYR112	0.000	
125	  CB	-34.464	13.441	-32.035	C.3	14	TYR112	0.000	
126	  CG	-35.577	14.470	-32.074	C.2	14	TYR112	0.000	
127	 CD1	-35.426	15.711	-31.453	C.2	14	TYR112	0.000	
128	 CD2	-36.795	14.189	-32.685	C.2	14	TYR112	0.000	
129	 CE1	-36.447	16.642	-31.447	C.2	14	TYR112	0.000	
130	 CE2	-37.828	15.120	-32.678	C.2	14	TYR112	0.000	
131	  CZ	-37.641	16.345	-32.058	C.2	14	TYR112	0.000	
132	  OH	-38.650	17.268	-32.046	O.3	14	TYR112	0.000	
133	   N	-29.023	11.684	-30.905	N.am	15	HIS115	0.000	
134	  CA	-28.559	13.026	-30.539	C.3	15	HIS115	0.000	
135	   C	-27.532	12.945	-29.401	C.2	15	HIS115	0.000	
136	   O	-27.754	12.230	-28.428	O.2	15	HIS115	0.000	
137	  CB	-29.753	13.899	-30.118	C.3	15	HIS115	0.000	
138	  CG	-30.546	14.448	-31.267	C.2	15	HIS115	0.000	
139	 CD2	-30.781	13.956	-32.506	C.2	15	HIS115	0.000	
140	 ND1	-31.197	15.663	-31.210	N.pl3	15	HIS115	0.000	
141	 CE1	-31.807	15.890	-32.360	C.2	15	HIS115	0.000	
142	 NE2	-31.566	14.872	-33.166	N.pl3	15	HIS115	0.000	
143	   N	-25.359	14.454	-26.196	N.am	16	TRP117	0.000	
144	  CA	-25.365	15.440	-25.103	C.3	16	TRP117	0.000	
145	   C	-24.158	15.280	-24.180	C.2	16	TRP117	0.000	
146	   O	-23.651	14.171	-23.992	O.2	16	TRP117	0.000	
147	  CB	-26.611	15.285	-24.234	C.3	16	TRP117	0.000	
148	  CG	-27.913	15.612	-24.884	C.2	16	TRP117	0.000	
149	 CD1	-28.694	14.774	-25.627	C.2	16	TRP117	0.000	
150	 CD2	-28.614	16.854	-24.812	C.2	16	TRP117	0.000	
151	 CE2	-29.811	16.701	-25.547	C.2	16	TRP117	0.000	
152	 CE3	-28.342	18.088	-24.207	C.2	16	TRP117	0.000	
153	 NE1	-29.833	15.421	-26.037	N.pl3	16	TRP117	0.000	
154	 CZ2	-30.739	17.731	-25.685	C.2	16	TRP117	0.000	
155	 CZ3	-29.267	19.114	-24.345	C.2	16	TRP117	0.000	
156	 CH2	-30.451	18.928	-25.079	C.2	16	TRP117	0.000	
@<TRIPOS>BOND
1 1 2 1
2 2 3 1
3 2 5 1
4 3 4 2
5 5 6 1
6 6 7 1
7 6 8 2
8 9 10 1
9 10 11 1
10 10 13 1
11 11 12 2
12 13 14 1
13 14 15 2
14 14 16 1
15 15 17 1
16 16 18 2
17 17 19 2
18 18 19 1
19 20 21 1
20 20 26 1
21 21 22 1
22 21 24 1
23 22 23 2
24 24 25 1
25 25 26 1
26 27 28 1
27 28 29 1
28 28 31 1
29 29 30 2
30 31 32 1
31 32 33 2
32 32 34 1
33 33 37 1
34 34 35 2
35 34 36 1
36 35 37 1
37 35 38 1
38 36 39 2
39 38 40 2
40 39 40 1
41 41 42 1
42 42 43 1
43 42 45 1
44 43 44 2
45 45 46 1
46 46 47 2
47 46 48 1
48 47 49 1
49 48 50 2
50 49 51 2
51 50 51 1
52 52 53 1
53 53 54 1
54 53 56 1
55 54 55 2
56 54 64 1
57 56 57 1
58 57 58 2
59 57 59 1
60 58 60 1
61 59 61 2
62 60 62 2
63 61 62 1
64 62 63 1
65 64 65 1
66 64 70 1
67 65 66 1
68 65 68 1
69 66 67 2
70 66 71 1
71 68 69 1
72 69 70 1
73 71 72 1
74 72 73 1
75 72 75 1
76 73 74 2
77 73 78 1
78 75 76 1
79 75 77 1
80 78 79 1
81 79 80 1
82 79 82 1
83 80 81 2
84 82 83 1
85 83 84 1
86 83 85 1
87 86 87 1
88 87 88 1
89 87 90 1
90 88 89 2
91 90 91 1
92 91 92 1
93 92 93 1
94 93 94 1
95 94 95 2
96 94 96 1
97 97 98 1
98 98 99 1
99 98 101 1
100 99 100 2
101 99 105 1
102 101 102 1
103 101 103 1
104 102 104 1
105 105 106 1
106 106 107 1
107 106 109 1
108 107 108 2
109 107 115 1
110 109 110 1
111 110 111 2
112 110 112 1
113 111 114 1
114 112 113 2
115 113 114 1
116 115 116 1
117 116 117 1
118 116 119 1
119 117 118 2
120 117 121 1
121 119 120 1
122 121 122 1
123 122 123 1
124 122 125 1
125 123 124 2
126 125 126 1
127 126 127 2
128 126 128 1
129 127 129 1
130 128 130 2
131 129 131 2
132 130 131 1
133 131 132 1
134 133 134 1
135 134 135 1
136 134 137 1
137 135 136 2
138 137 138 1
139 138 139 2
140 138 140 1
141 139 142 1
142 140 141 2
143 141 142 1
144 143 144 1
145 144 145 1
146 144 147 1
147 145 146 2
148 147 148 1
149 148 149 2
150 148 150 1
151 149 153 1
152 150 151 2
153 150 152 1
154 151 153 1
155 151 154 1
156 152 155 2
157 154 156 2
158 155 156 1
@<TRIPOS>SUBSTRUCTURE
1	ASN67	1	RESIDUE	1 B	ASN
2	PHE76	9	RESIDUE	1 B	PHE
3	PRO86	20	RESIDUE	1 B	PRO
4	TRP88	27	RESIDUE	1 B	TRP
5	PHE91	41	RESIDUE	1 B	PHE
6	TYR98	52	RESIDUE	1 B	TYR
7	PRO99	64	RESIDUE	1 B	PRO
8	THR100	71	RESIDUE	1 B	THR
9	LEU101	78	RESIDUE	1 B	LEU
10	ARG107	86	RESIDUE	1 B	ARG
11	ILE109	97	RESIDUE	1 B	ILE
12	HIS110	105	RESIDUE	1 B	HIS
13	SER111	115	RESIDUE	1 B	SER
14	TYR112	121	RESIDUE	1 B	TYR
15	HIS115	133	RESIDUE	1 B	HIS
16	TRP117	143	RESIDUE	1 B	TRP
