# created with PyMOL 3.0.0
@<TRIPOS>MOLECULE
BRD9_6hm0_TargetProtein
29 32 1                 
SMALL
USER_CHARGES
@<TRIPOS>ATOM
1	 O01	10.950	0.953	-6.921	O.2	1	MOL1	0.000	
2	 C02	9.905	0.507	-6.497	C.2	1	MOL1	0.000	
3	 C03	8.809	0.200	-7.403	C.2	1	MOL1	0.000	
4	 C04	8.938	0.424	-8.761	C.2	1	MOL1	0.000	
5	 N05	7.987	0.054	-9.639	N.2	1	MOL1	0.000	
6	 C06	6.904	-0.566	-9.131	C.2	1	MOL1	0.000	
7	 C07	6.711	-0.765	-7.774	C.2	1	MOL1	0.000	
8	 C08	7.673	-0.347	-6.876	C.2	1	MOL1	0.000	
9	 C09	7.511	-0.510	-5.454	C.2	1	MOL1	0.000	
10	 C10	8.561	-0.264	-4.587	C.2	1	MOL1	0.000	
11	 N11	9.726	0.232	-5.144	N.2	1	MOL1	0.000	
12	 C12	10.887	0.522	-4.299	C.3	1	MOL1	0.000	
13	 C13	6.316	-0.894	-4.754	C.2	1	MOL1	0.000	
14	 C14	6.396	-1.612	-3.572	C.2	1	MOL1	0.000	
15	 C15	5.236	-2.003	-2.915	C.2	1	MOL1	0.000	
16	 O16	5.303	-2.755	-1.760	O.3	1	MOL1	0.000	
17	 C17	6.547	-3.259	-1.238	C.3	1	MOL1	0.000	
18	 C18	3.991	-1.663	-3.432	C.2	1	MOL1	0.000	
19	 C19	2.726	-2.127	-2.737	C.3	1	MOL1	0.000	
20	 N20	2.270	-1.156	-1.675	N.3	1	MOL1	0.000	
21	 C21	1.876	0.193	-2.270	C.3	1	MOL1	0.000	
22	 C22	0.886	0.983	-1.365	C.3	1	MOL1	0.000	
23	 N23	1.165	0.665	0.092	N.3	1	MOL1	0.000	
24	 C24	0.863	-0.805	0.381	C.3	1	MOL1	0.000	
25	 C25	1.127	-1.718	-0.853	C.3	1	MOL1	0.000	
26	 C65	3.916	-0.951	-4.623	C.2	1	MOL1	0.000	
27	 O66	2.687	-0.676	-5.187	O.3	1	MOL1	0.000	
28	 C67	2.464	0.540	-5.927	C.3	1	MOL1	0.000	
29	 C68	5.077	-0.548	-5.265	C.2	1	MOL1	0.000	
@<TRIPOS>BOND
1 1 2 2
2 2 3 ar
3 2 11 ar
4 3 4 ar
5 3 8 ar
6 4 5 ar
7 5 6 ar
8 6 7 ar
9 7 8 ar
10 8 9 ar
11 9 10 ar
12 9 13 1
13 10 11 ar
14 11 12 1
15 13 14 ar
16 13 29 ar
17 14 15 ar
18 15 16 1
19 15 18 ar
20 16 17 1
21 18 19 1
22 18 26 ar
23 19 20 1
24 20 21 1
25 20 25 1
26 21 22 1
27 22 23 1
28 23 24 1
29 24 25 1
30 26 27 1
31 26 29 ar
32 27 28 1
@<TRIPOS>SUBSTRUCTURE
1	MOL1	1	GROUP	1 C	MOL
