# created with PyMOL 3.0.0
@<TRIPOS>MOLECULE
BRD7_6v1h_TargetProtein
29 32 1                 
SMALL
USER_CHARGES
@<TRIPOS>ATOM
1	  C1	30.182	45.227	16.268	C.2	1	MOL1	0.000	
2	  N1	31.040	46.267	16.310	N.2	1	MOL1	0.000	
3	  O1	28.105	48.899	22.892	O.3	1	MOL1	0.000	
4	  C2	28.747	46.201	17.968	C.2	1	MOL1	0.000	
5	  N2	27.062	43.929	17.854	N.2	1	MOL1	0.000	
6	  O2	24.442	49.795	19.954	O.3	1	MOL1	0.000	
7	  C3	29.027	45.139	17.074	C.2	1	MOL1	0.000	
8	  N3	24.939	50.207	23.354	N.3	1	MOL1	0.000	
9	  O3	28.325	43.049	16.179	O.2	1	MOL1	0.000	
10	  C4	28.109	43.947	16.994	C.2	1	MOL1	0.000	
11	  N4	23.156	48.949	25.110	N.3	1	MOL1	0.000	
12	  C5	27.554	46.107	18.832	C.2	1	MOL1	0.000	
13	  C6	25.540	49.006	20.232	C.2	1	MOL1	0.000	
14	  C7	25.952	47.929	19.409	C.2	1	MOL1	0.000	
15	  C8	27.440	48.558	21.732	C.2	1	MOL1	0.000	
16	  C9	26.291	49.313	21.394	C.2	1	MOL1	0.000	
17	 C10	29.285	48.195	23.239	C.3	1	MOL1	0.000	
18	 C11	23.669	49.497	18.803	C.3	1	MOL1	0.000	
19	 C12	27.113	47.196	19.721	C.2	1	MOL1	0.000	
20	 C13	29.632	47.300	17.997	C.2	1	MOL1	0.000	
21	 C14	30.760	47.281	17.154	C.2	1	MOL1	0.000	
22	 C15	26.794	45.000	18.721	C.2	1	MOL1	0.000	
23	 C16	26.144	42.787	17.869	C.3	1	MOL1	0.000	
24	 C17	27.852	47.507	20.876	C.2	1	MOL1	0.000	
25	 C18	25.895	50.509	22.259	C.3	1	MOL1	0.000	
26	 C19	24.456	49.280	25.576	C.3	1	MOL1	0.000	
27	 C20	25.425	49.258	24.383	C.3	1	MOL1	0.000	
28	 C21	23.574	49.834	22.916	C.3	1	MOL1	0.000	
29	 C22	22.633	49.836	24.133	C.3	1	MOL1	0.000	
@<TRIPOS>BOND
1 1 2 ar
2 1 7 ar
3 2 21 ar
4 3 15 1
5 3 17 1
6 4 7 ar
7 4 12 ar
8 4 20 ar
9 5 10 ar
10 5 22 ar
11 5 23 1
12 6 13 1
13 6 18 1
14 7 10 ar
15 8 25 1
16 8 27 1
17 8 28 1
18 9 10 2
19 11 26 1
20 11 29 1
21 12 19 1
22 12 22 ar
23 13 14 ar
24 13 16 ar
25 14 19 ar
26 15 16 ar
27 15 24 ar
28 16 25 1
29 19 24 ar
30 20 21 ar
31 26 27 1
32 28 29 1
@<TRIPOS>SUBSTRUCTURE
1	MOL1	1	GROUP	1 C	MOL
